/*--------------------------------*- C++ -*----------------------------------*\
| =========                 |                                                 |
| \\      /  F ield         | foam-extend: Open Source CFD                    |
|  \\    /   O peration     | Version:     4.1                                |
|   \\  /    A nd           | Web:         http://www.foam-extend.org         |
|    \\/     M anipulation  |                                                 |
\*---------------------------------------------------------------------------*/
FoamFile
{
    version     2.0;
    format      ascii;
    class       volScalarField;
    object      T;
}
// * * * * * * * * * * * * * * * * * * * * * * * * * * * * * * * * * * * * * //

dimensions      [0 0 0 1 0 0 0];

internalField   uniform 317.15;

boundaryField
{
    heater
    {
        type            fixedValue;
        value           uniform 319.15;
    }

    cooler
    {
        type            fixedValue;
        value           uniform 315.15;
    }

    ".*"
    {
	type		zeroGradient;
    }
}
// ************************************************************************* //
